Version 4
SHEET 1 972 680
WIRE 928 -256 352 -256
WIRE 352 -208 352 -256
WIRE 160 -112 128 -112
WIRE 256 -112 224 -112
WIRE 352 -80 352 -128
WIRE 448 -80 352 -80
WIRE 592 -80 512 -80
WIRE 928 -80 928 -256
WIRE 128 -32 128 -112
WIRE 128 -32 64 -32
WIRE 144 -32 128 -32
WIRE 256 -32 256 -112
WIRE 256 -32 224 -32
WIRE 352 -32 352 -80
WIRE 352 -32 256 -32
WIRE 64 0 64 -32
WIRE -304 80 -672 80
WIRE -144 80 -224 80
WIRE 64 80 -80 80
WIRE 240 80 64 80
WIRE 352 96 352 -32
WIRE 352 96 144 96
WIRE 352 112 240 112
WIRE -672 160 -672 80
WIRE 352 160 352 112
WIRE -672 336 -672 240
FLAG -672 336 0
FLAG 592 0 0
FLAG 64 160 0
FLAG 352 240 0
FLAG 592 -80 vout
FLAG 928 0 0
SYMBOL voltage -672 144 R0
WINDOW 123 24 32 Left 2
WINDOW 39 24 64 Left 2
WINDOW 3 24 48 Left 2
SYMATTR Value2 AC 0.12
SYMATTR Value SINE()
SYMATTR InstName V2
SYMBOL AutoGenerated\\X2SC2753 192 96 R0
SYMATTR InstName U1
SYMBOL res 48 64 R0
SYMATTR InstName R1
SYMATTR Value 750
SYMBOL res 48 -16 R0
SYMATTR InstName R2
SYMATTR Value 550
SYMBOL res 240 -48 R90
WINDOW 0 0 56 VBottom 2
WINDOW 3 16 56 VBottom 2
SYMATTR InstName R3
SYMATTR Value 2750
SYMBOL cap 224 -128 R90
WINDOW 0 0 32 VBottom 2
WINDOW 3 32 32 VTop 2
SYMATTR InstName C1
SYMATTR Value 1
SYMBOL cap 512 -96 R90
WINDOW 0 0 32 VBottom 2
WINDOW 3 32 32 VTop 2
SYMATTR InstName C2
SYMATTR Value 1µ
SYMBOL cap -80 64 R90
WINDOW 0 0 32 VBottom 2
WINDOW 3 32 32 VTop 2
SYMATTR InstName C3
SYMATTR Value 1µ
SYMBOL res -208 64 R90
WINDOW 0 0 56 VBottom 2
WINDOW 3 32 56 VTop 2
SYMATTR InstName R5
SYMATTR Value 50
SYMBOL res 608 16 R180
WINDOW 0 36 76 Left 2
WINDOW 3 36 40 Left 2
SYMATTR InstName R6
SYMATTR Value 500
SYMBOL res 368 256 R180
WINDOW 0 36 76 Left 2
WINDOW 3 36 40 Left 2
SYMATTR InstName R7
SYMATTR Value 1.5
SYMBOL voltage 928 -96 R0
WINDOW 123 0 0 Left 0
WINDOW 39 0 0 Left 0
SYMATTR InstName V1
SYMATTR Value 10
SYMBOL res 336 -224 R0
SYMATTR InstName R4
SYMATTR Value 500
TEXT -704 352 Left 2 !.ac dec 1000 30k 400meg
