Version 4
SHEET 1 3088 680
WIRE 2096 -160 1744 -160
WIRE 2432 -160 2096 -160
WIRE 2432 -96 2432 -160
WIRE 2432 -96 2368 -96
WIRE 2496 -96 2432 -96
WIRE 2976 -48 2768 -48
WIRE 1536 -32 1152 -32
WIRE 1744 -32 1744 -160
WIRE 1744 -32 1536 -32
WIRE 2240 -32 2192 -32
WIRE 2368 -16 2288 -16
WIRE 2432 -16 2432 -32
WIRE 2432 -16 2368 -16
WIRE 2496 -16 2432 -16
WIRE 1936 0 1840 0
WIRE 1952 0 1936 0
WIRE 2096 0 2016 0
WIRE 2192 0 2096 0
WIRE 1088 16 656 16
WIRE 1152 16 1152 -32
WIRE 1152 16 1088 16
WIRE 2240 48 2240 -32
WIRE 2240 48 2032 48
WIRE 2768 48 2768 32
WIRE 1536 64 1536 48
WIRE 656 80 656 16
WIRE 656 80 560 80
WIRE 800 80 656 80
WIRE 1152 96 1088 96
WIRE 2240 96 2240 48
WIRE 2880 96 2832 96
WIRE 1648 112 1600 112
WIRE 2976 112 2976 -48
WIRE 2976 112 2928 112
WIRE 656 128 656 80
WIRE 976 128 928 128
WIRE 1744 128 1744 -32
WIRE 1744 128 1696 128
WIRE 1920 128 1744 128
WIRE 2032 128 2032 48
WIRE 2032 128 1984 128
WIRE 2496 128 2496 -16
WIRE 2640 128 2496 128
WIRE 2768 128 2704 128
WIRE 2832 128 2768 128
WIRE 1152 144 1152 96
WIRE 1152 144 1024 144
WIRE 1312 144 1152 144
WIRE 1536 144 1376 144
WIRE 1600 144 1536 144
WIRE 928 160 800 160
WIRE 1152 176 1152 144
WIRE 2768 176 2768 128
WIRE 1536 192 1536 144
WIRE 560 240 560 144
WIRE 656 240 656 208
WIRE 2880 240 2880 96
WIRE 1648 256 1648 112
WIRE 2768 272 2768 256
WIRE 976 288 976 128
WIRE 976 288 784 288
WIRE 1024 288 976 288
WIRE 1152 288 1152 240
WIRE 1152 288 1088 288
WIRE 1200 288 1152 288
WIRE 1536 288 1536 272
WIRE 976 320 976 288
WIRE 1152 320 1152 288
WIRE 1280 384 1280 288
WIRE 784 400 784 368
FLAG 656 240 0
FLAG 784 400 0
FLAG 800 240 0
FLAG 560 240 0
FLAG 976 400 0
FLAG 1152 384 0
FLAG 1280 384 Vtune
FLAG 1648 336 0
FLAG 1536 368 0
FLAG 2240 176 0
FLAG 1840 80 0
FLAG 2096 160 0
FLAG 2880 320 0
FLAG 2768 352 0
FLAG 3040 192 0
FLAG 3040 112 vout
FLAG 1936 0 Vlo
SYMBOL AutoGenerated\\X2SC2753 976 144 R180
SYMATTR InstName U2
SYMBOL voltage 656 112 R0
WINDOW 123 0 0 Left 0
WINDOW 39 0 0 Left 0
SYMATTR InstName V4
SYMATTR Value 10
SYMBOL current 784 288 R0
WINDOW 123 0 0 Left 0
WINDOW 39 0 0 Left 0
SYMATTR InstName I1
SYMATTR Value PWL(1n 1m 2n 0)
SYMBOL res 784 64 R0
SYMATTR InstName R1
SYMATTR Value 2k
SYMBOL res 784 144 R0
SYMATTR InstName R2
SYMATTR Value 3k
SYMBOL cap 544 80 R0
SYMATTR InstName C1
SYMATTR Value 2µ
SYMBOL ind 1072 0 R0
SYMATTR InstName L1
SYMATTR Value 90n
SYMBOL cap 1136 176 R0
SYMATTR InstName C3
SYMATTR Value 36p
SYMBOL res 960 304 R0
SYMATTR InstName R4
SYMATTR Value 150
SYMBOL cap 1136 320 R0
SYMATTR InstName C4
SYMATTR Value 40p
SYMBOL res 1296 272 R90
WINDOW 0 0 56 VBottom 2
WINDOW 3 32 56 VTop 2
SYMATTR InstName R5
SYMATTR Value 1k
SYMBOL cap 1088 272 R90
WINDOW 0 0 32 VBottom 2
WINDOW 3 32 32 VTop 2
SYMATTR InstName C2
SYMATTR Value 100p
SYMBOL res 1136 0 R0
SYMATTR InstName R3
SYMATTR Value 300
SYMBOL cap 1376 128 R90
WINDOW 0 0 32 VBottom 2
WINDOW 3 32 32 VTop 2
SYMATTR InstName C5
SYMATTR Value 1µ
SYMBOL AutoGenerated\\X2SC2753 1648 128 R180
SYMATTR InstName U1
SYMBOL res 1632 240 R0
SYMATTR InstName R8
SYMATTR Value 200
SYMBOL ind 1520 176 R0
SYMATTR InstName L2
SYMATTR Value 100n
SYMBOL res 1520 272 R0
SYMATTR InstName R6
SYMATTR Value 1k
SYMBOL res 1520 48 R0
SYMATTR InstName R7
SYMATTR Value 1.5k
SYMBOL ind 1520 -48 R0
SYMATTR InstName L3
SYMATTR Value 100n
SYMBOL cap 1984 112 R90
WINDOW 0 0 32 VBottom 2
WINDOW 3 32 32 VTop 2
SYMATTR InstName C6
SYMATTR Value 1µ
SYMBOL AutoGenerated\\X2SC2753 2240 -16 R180
SYMATTR InstName U3
SYMBOL res 2224 80 R0
SYMATTR InstName R9
SYMATTR Value 250
SYMBOL res 2080 -96 R0
SYMATTR InstName R10
SYMATTR Value 2k
SYMBOL res 2080 -16 R0
SYMATTR InstName R11
SYMATTR Value 1k
SYMBOL ind 2352 -112 R0
SYMATTR InstName L4
SYMATTR Value 2.2µ
SYMBOL cap 2416 -96 R0
SYMATTR InstName C7
SYMATTR Value 100p
SYMBOL res 2480 -112 R0
SYMATTR InstName R12
SYMATTR Value 2k
SYMBOL voltage 1840 -16 R0
WINDOW 123 0 0 Left 0
WINDOW 39 0 0 Left 0
SYMATTR InstName V1
SYMATTR Value SINE(0 50m 88meg 0 0)
SYMBOL cap 2016 -16 R90
WINDOW 0 0 32 VBottom 2
WINDOW 3 32 32 VTop 2
SYMATTR InstName C8
SYMATTR Value 470n
SYMBOL ind 2080 -176 R0
SYMATTR InstName L5
SYMATTR Value 100n
SYMBOL ind 2080 64 R0
SYMATTR InstName L6
SYMATTR Value 100n
SYMBOL AutoGenerated\\X2SC2753 2880 112 R180
SYMATTR InstName U4
SYMBOL res 2864 224 R0
SYMATTR InstName R13
SYMATTR Value 200
SYMBOL ind 2752 160 R0
SYMATTR InstName L7
SYMATTR Value 100n
SYMBOL res 2752 256 R0
SYMATTR InstName R14
SYMATTR Value 1k
SYMBOL res 2752 32 R0
SYMATTR InstName R15
SYMATTR Value 1.5k
SYMBOL ind 2752 -64 R0
SYMATTR InstName L8
SYMATTR Value 100n
SYMBOL cap 2704 112 R90
WINDOW 0 0 32 VBottom 2
WINDOW 3 32 32 VTop 2
SYMATTR InstName C9
SYMATTR Value 470n
SYMBOL cap 3040 96 R90
WINDOW 0 0 32 VBottom 2
WINDOW 3 32 32 VTop 2
SYMATTR InstName C11
SYMATTR Value 470n
SYMBOL res 3024 96 R0
SYMATTR InstName R16
SYMATTR Value 50
TEXT 512 336 Left 2 !.tran 0 9000n 3000n
TEXT 912 -104 Left 2 ;Local Oscillator
TEXT 1464 -112 Left 2 ;LO Buffer
TEXT 2104 -248 Left 2 ;mixer
TEXT 2832 -112 Left 2 ;output buffer
