Version 4
SHEET 1 880 680
WIRE 416 -464 192 -464
WIRE 192 -400 192 -464
WIRE 416 -400 416 -464
WIRE 416 -272 416 -320
WIRE 192 -256 192 -320
WIRE 192 -256 -96 -256
WIRE -96 -192 -96 -256
WIRE 192 -192 192 -256
WIRE 192 -192 144 -192
WIRE 240 -192 192 -192
WIRE 192 -176 192 -192
WIRE 192 -112 144 -112
WIRE 240 -112 192 -112
WIRE 192 -48 192 -112
WIRE 192 64 192 -48
WIRE 192 64 64 64
WIRE 512 64 192 64
WIRE -128 80 -672 80
WIRE -96 80 -96 -112
WIRE -96 80 -128 80
WIRE -32 80 -96 80
WIRE 112 96 64 96
WIRE 512 112 512 64
WIRE -672 160 -672 80
WIRE 112 176 112 96
WIRE -96 224 -96 80
WIRE 512 224 512 192
WIRE -96 320 -96 304
WIRE -672 336 -672 240
FLAG -96 320 0
FLAG 112 176 0
FLAG 416 -272 0
FLAG 512 224 0
FLAG -672 336 0
FLAG 512 64 Vout
FLAG -128 80 Vc
FLAG 192 -48 Vb
SYMBOL AutoGenerated\\X2SC2753 16 80 R0
SYMATTR InstName U1
SYMBOL res -112 -208 R0
SYMATTR InstName R1
SYMATTR Value 10
SYMBOL res -112 208 R0
SYMATTR InstName R2
SYMATTR Value 10
SYMBOL ind 224 -208 R0
SYMATTR InstName L1
SYMATTR Value 11n
SYMBOL cap 176 -176 R0
SYMATTR InstName C3
SYMATTR Value 240p
SYMBOL res 176 -416 R0
SYMATTR InstName R4
SYMATTR Value 1
SYMBOL voltage 416 -416 R0
WINDOW 123 0 0 Left 0
WINDOW 39 0 0 Left 0
SYMATTR InstName V1
SYMATTR Value 12
SYMBOL res 496 96 R0
SYMATTR InstName R6
SYMATTR Value 50
SYMBOL voltage -672 144 R0
WINDOW 123 24 32 Left 2
WINDOW 39 24 112 Left 2
WINDOW 3 24 48 Left 2
SYMATTR Value2 AC 0.1
SYMATTR SpiceLine Rser=50
SYMATTR InstName V2
SYMATTR Value SINE(0 0.1 98MEG)
SYMBOL res 128 -208 R0
SYMATTR InstName R3
SYMATTR Value 1.4
TEXT -706 352 Left 2 !.ac dec 100 1k 1G
