Version 4
SHEET 1 880 680
WIRE 416 -464 192 -464
WIRE 192 -400 192 -464
WIRE 416 -400 416 -464
WIRE 416 -272 416 -320
WIRE 192 -256 192 -320
WIRE 192 -256 -96 -256
WIRE -96 -192 -96 -256
WIRE 192 -192 192 -256
WIRE 192 -192 144 -192
WIRE 240 -192 192 -192
WIRE 192 -176 192 -192
WIRE 192 -112 144 -112
WIRE 240 -112 192 -112
WIRE 192 64 192 -112
WIRE 192 64 64 64
WIRE 336 64 192 64
WIRE 512 64 400 64
WIRE -320 80 -672 80
WIRE -96 80 -96 -112
WIRE -96 80 -256 80
WIRE -32 80 -96 80
WIRE 112 96 64 96
WIRE 512 112 512 64
WIRE -672 160 -672 80
WIRE 112 176 112 96
WIRE -96 224 -96 80
WIRE 512 224 512 192
WIRE -96 320 -96 304
WIRE -672 336 -672 240
FLAG -96 320 0
FLAG 112 176 0
FLAG 416 -272 0
FLAG 512 224 0
FLAG -672 336 0
SYMBOL AutoGenerated\\X2SC2753 16 80 R0
SYMATTR InstName U1
SYMBOL cap -256 64 R90
WINDOW 0 0 32 VBottom 2
WINDOW 3 32 32 VTop 2
SYMATTR InstName C1
SYMBOL cap 400 48 R90
WINDOW 0 0 32 VBottom 2
WINDOW 3 32 32 VTop 2
SYMATTR InstName C2
SYMBOL res -112 -208 R0
SYMATTR InstName R1
SYMBOL res -112 208 R0
SYMATTR InstName R2
SYMBOL ind 224 -208 R0
SYMATTR InstName L1
SYMBOL cap 176 -176 R0
SYMATTR InstName C3
SYMBOL res 160 -96 R180
WINDOW 0 36 76 Left 2
WINDOW 3 36 40 Left 2
SYMATTR InstName R3
SYMBOL res 176 -416 R0
SYMATTR InstName R4
SYMBOL voltage 416 -416 R0
SYMATTR InstName V1
SYMBOL res 496 96 R0
SYMATTR InstName R6
SYMBOL voltage -672 144 R0
WINDOW 123 0 0 Left 0
WINDOW 39 24 112 Left 2
SYMATTR InstName V2
SYMATTR Value ""
SYMATTR SpiceLine Rser=50
